Circuit: * C:\Users\vtolenti89\Documents\05_Electronics\Kicad\Projects\Watering_System\Simulation\Draft1.asc

.OP point found by inspection.

Date: Fri Jun 28 22:28:13 2019
Total elapsed time: 0.164 seconds.

tnom = 27
temp = 27
method = modified trap
totiter = 3380
traniter = 3380
tranpoints = 1279
accept = 1205
rejected = 74
matrix size = 23
fillins = 2
solver = Normal
Matrix Compiler1: 1.59 KB object code size  0.4/0.3/[0.2]
Matrix Compiler2: 1.95 KB object code size  0.2/0.3/[0.2]

