Circuit: * C:\Users\vtolenti89\Documents\05_Electronics\Kicad\Projects\Watering_System\Simulation\water_sensor_2.asc

.step res_w=20 rref=100000
.step res_w=2000 rref=100000
.step res_w=20 rref=200000
.step res_w=2000 rref=200000

Date: Sun Jun 09 17:41:29 2019
Total elapsed time: 0.133 seconds.

tnom = 27
temp = 27
method = trap
totiter = 18
traniter = 0
tranpoints = 0
accept = 0
rejected = 0
matrix size = 9
fillins = 0
solver = Normal
Matrix Compiler1: 278 bytes object code size
Matrix Compiler2: 545 bytes object code size
